57
Lattice="26.98265980610593 0.0 0.0 -1.0941983066e-06 25.032332676678646 0.0 -1.7490584797e-06 -1.7490584797e-06 40.01378312586723" Properties=species:S:1:pos:R:3 pbc="T T T"
Cu   13.421921   12.573229   28.375334
 N   12.242812   13.532859   29.706818
 N   14.427713   11.685366   29.871925
 N   14.588480   11.608529   27.039057
 N   12.425396   13.467467   26.883823
 C   11.216788   14.419240   29.447348
 C   10.646557   14.898946   30.685255
 C   11.331863   14.290911   31.696490
 C   12.322869   13.445926   31.079533
 C   13.229235   12.664148   31.785171
 C   14.202816   11.848934   31.221995
 C   15.125574   11.048317   31.986395
 C   15.916597   10.392499   31.089622
 C   15.476586   10.793795   29.772251
 C   16.047072   10.331690   28.580991
 C   15.616171   10.726011   27.308208
 C   16.199541   10.249600   26.076361
 C   15.516575   10.846474   25.056699
 C   14.516527   11.692050   25.661963
 C   13.610593   12.474859   24.940861
 C   12.639867   13.295097   25.531895
 C   11.706814   14.092841   24.772652
 C   10.921603   14.747830   25.672798
 C   11.374185   14.358497   26.986764
 C   10.793543   14.819607   28.175233
 C   17.181881    9.364176   28.694984
 C   18.503188    9.825975   28.786011
 C   16.939763    7.984339   28.766082
 C   19.559283    8.928261   28.960127
 C   17.995727    7.086026   28.939082
 C   19.307470    7.556293   29.042397
 C    9.662876   15.789172   28.063543
 C    9.905070   17.125696   27.709942
 C    8.339030   15.375978   28.277778
 C    8.848181   18.027574   27.569819
 C    7.281236   16.277003   28.133318
 C    7.532640   17.604892   27.778121
 H   13.900000   12.100000   24.000000
 H    9.831627   15.612515   30.755467
 H   11.192948   14.400093   32.768970
 H   13.171383   12.693018   32.873513
 H   15.153040   11.002539   33.072002
 H   16.727060    9.698014   31.286991
 H   17.025556    9.547591   26.014808
 H   15.664268   10.733710   23.986662
 H   11.662347   14.134606   23.689286
 H   10.102775   15.431413   25.474373
 H   18.696086   10.898650   28.731995
 H   15.913620    7.619578   28.696883
 H   20.580797    9.303427   29.039895
 H   17.791510    6.015942   29.001206
 H   20.130879    6.855963   29.189684
 H   10.932785   17.452097   27.542461
 H    8.142679   14.336070   28.544182
 H    9.054065   19.063139   27.294514
 H    6.256272   15.937826   28.291399
 H    6.706298   18.307753   27.662513
